26
octane
C   0.4419364699  -0.6201930287   0.0000000000
C  -0.4419364699   0.6201930287   0.0000000000
H  -1.0972005331   0.5963340874   0.8754771384
H   1.0972005331  -0.5963340874  -0.8754771384
H  -1.0972005331   0.5963340874  -0.8754771384
H   1.0972005331  -0.5963340874   0.8754771384
C   0.3500410560   1.9208613544   0.0000000000
C  -0.3500410560  -1.9208613544   0.0000000000
H   1.0055486349   1.9450494955   0.8754071298
H  -1.0055486349  -1.9450494955  -0.8754071298
H   1.0055486349   1.9450494955  -0.8754071298
H  -1.0055486349  -1.9450494955   0.8754071298
C  -0.5324834907   3.1620985364   0.0000000000
C   0.5324834907  -3.1620985364   0.0000000000
H  -1.1864143468   3.1360988730  -0.8746087226
H   1.1864143468  -3.1360988730   0.8746087226
H  -1.1864143468   3.1360988730   0.8746087226
H   1.1864143468  -3.1360988730  -0.8746087226
C   0.2759781663   4.4529279755   0.0000000000
C  -0.2759781663  -4.4529279755   0.0000000000
H   0.9171145792   4.5073104916   0.8797333088
H  -0.9171145792  -4.5073104916  -0.8797333088
H   0.9171145792   4.5073104916  -0.8797333088
H  -0.9171145792  -4.5073104916   0.8797333088
H   0.3671153250  -5.3316378285   0.0000000000
H  -0.3671153250   5.3316378285   0.0000000000